! r2scan-3c TightSCF Opt freq 
%geom maxiter 300 end
%maxcore 4000 
%pal nprocs 24
end

*xyz 2 1
C       -2.407014943     -2.014100641     -0.536545434
C       -2.983369452     -3.273574275     -0.357610788
C       -2.493191109     -4.155447989      0.616163587
C       -1.424042018     -3.749671224      1.398971306
H       -2.698768088      3.816987327      1.285893499
H       -2.937110513      2.557708041      3.398005544
H       -2.155684756      0.165822463      3.488833434
H       -1.160863618     -0.828303834      1.430995996
H        0.590284000      2.589455000     -1.501386000
H        3.925596000      4.450665000      0.476593000
H        3.938327000      2.560264000      2.069299000
H        3.792679000      0.909361000      3.351017000
H        3.290336966     -1.741587906     -3.635884550
H        2.716431966     -1.137065906      0.584401450
C       -0.836727504     -2.491443122      1.229853979
C       -1.786686856      2.178974274      0.219965594
C       -2.357751591      2.789813506      1.346873019
C       -2.492593023      2.083976326      2.527530218
C       -2.060134932      0.758626691      2.585840350
C       -1.506154375      0.202629150      1.447262063
C        1.344444000      2.631725000     -0.719412000
C        2.248931000      3.675553000     -0.641362000
C        3.195102000      3.652442000      0.382515000
C        3.200990000      2.596184000      1.275638000
C        2.260972000      1.564358000      1.152972000
C        2.161512000      0.394896000      2.015874000
C        3.020434000      0.184979000      3.105669000
C        2.894916000     -0.952287000      3.884836000
C        1.904901000     -1.888212000      3.574250000
C        1.050844000     -1.686690000      2.496990000
H        1.271164966     -0.467480906     -4.104483550
C       -2.145553034      1.871606094     -1.203670550
C       -2.760772034      2.161574094     -2.407838550
C       -2.164368034      1.695235094     -3.579917550
C        0.811434966     -0.053528906     -2.028866550
C       -0.993419034      0.965220094     -3.501554550
C       -0.407948034      0.700646094     -2.253886550
C        1.570658966     -0.601450906     -3.068265550
C        2.722615966     -1.327787906     -2.811396550
C        3.119224966     -1.505930906     -1.478329550
C        2.370214966     -0.965103906     -0.430795550
H       -2.817981345     -1.371080899     -1.309692680
H       -2.927037961     -5.136153626      0.769025120
H       -1.051722979     -4.439232554      2.152213665
H       -3.684372034      2.729647094     -2.423590550
H       -0.527494034      0.588243094     -4.404891550
N       -1.362248923      0.885162382      0.301347971
N        1.338714000      1.610873000      0.150837000
H        4.014817701     -2.068204335     -1.258870571
H       -3.816564535     -3.571874514     -0.976644648
N        1.120817473     -0.604329607      1.734088465
N        1.269494849     -0.250591576     -0.646026195
H        2.222878039      4.486441494     -1.354230216
H        1.802475086     -2.777789707      4.178038402
N       -1.091577191      1.235783105     -1.067640557
N       -1.278853775     -1.572099867      0.295793255
Os      -0.125780038      0.047853139     -0.035512473
C        3.839585298     -1.181409469      5.079282655
C        3.337559139     -1.288904889      6.387237486
C        5.228016209     -1.288904889      4.892104365
C        4.192324176     -1.496283362      7.468530621
C        6.083289275     -1.496283362      5.972995708
C        5.569439363     -1.600972629      7.266522575
H        2.268095145     -1.208948932      6.555517656
H        5.638165226     -1.208948932      3.890181597
H        3.781404719     -1.576221168      8.470908905
H        7.153374034     -1.576221168      5.804070772
C       -2.806138988      1.980818873     -4.950381685
C       -2.015853041      2.114803760     -6.104430013
C       -4.198613260      2.114803760     -5.082271117
C       -2.596425875      2.373285296     -7.344972808
C       -4.779772674      2.373285296     -6.322539223
C       -3.981333414      2.503772526     -7.459940279
H       -0.937701131      2.015144724     -6.026193573
H       -4.828852655      2.015144724     -4.204016719
H       -1.965332482      2.472921708     -8.223494744
H       -5.858676898      2.472921708     -6.400290987
Br       6.759477310     -1.889607428      8.771215114
Br      -4.789798123      2.863533910     -9.186369125
*