!r2scan CPCM(Acetonitrile)
%TDDFT
   NROOTS   30 end
%maxcore 2000
%pal nprocs 28
end
*xyz 2 1
C       -1.561344248     -2.270815249     -0.089082421
C       -2.057386066     -3.500097029      0.304901994
C       -1.505151883     -4.126955110      1.417699714
C       -0.474574685     -3.498409795      2.099149147
H       -3.994836061      2.904772419     -0.277945043
H       -4.370862719      3.276482806      2.143730254
H       -2.723241059      2.325912023      3.783769903
H       -0.771824708      1.055718391      2.921491434
H        1.000827836      2.944876804     -1.319627948
H        4.200342829      4.608606703      1.022349866
H        4.082720987      2.607846394      2.479237963
H        3.822026314      0.802234639      3.683618596
H        3.203043925     -2.060625498     -4.613947210
H        2.904506020     -1.526382220     -0.357473515
C       -0.006071683     -2.261449827      1.667747264
C       -2.188152240      1.783931640      0.019164733
C       -3.296213313      2.507161859      0.449404582
C       -3.507034217      2.715142708      1.803833168
C       -2.596237359      2.189901670      2.715251103
C       -1.507055016      1.480214243      2.243767793
C        1.699518244      2.906068930     -0.488919674
C        2.606882667      3.924563469     -0.261670249
C        3.478690385      3.824687765      0.818086718
C        3.412324689      2.705016288      1.632778969
C        2.483574856      1.703593524      1.366977157
C        2.338286630      0.482713386      2.165750221
C        3.067415075      0.130643059      3.290500055
C        2.807420510     -1.078688286      3.956539351
C        1.791607340     -1.903024535      3.444458364
C        1.075462327     -1.518298470      2.321721270
H        1.134473985     -0.718557166     -4.858442643
C       -1.888555552      1.497392525     -1.387433646
C       -2.614735550      1.906536458     -2.494990261
C       -2.194258704      1.556969612     -3.789066385
C        0.908606264     -0.401464886     -2.746313369
C       -1.025049706      0.788377891     -3.913012951
C       -0.318858996      0.399676962     -2.785344702
C        1.546041053     -0.909778278     -3.873840863
C        2.703071690     -1.661221895     -3.737833245
C        3.209134639     -1.893884444     -2.462819626
C        2.543694773     -1.369492146     -1.369781950
H       -1.963129091     -1.746924529     -0.951508609
H       -1.872848437     -5.092276595      1.749430969
H       -0.031304942     -3.970659720      2.968609559
H       -3.494865094      2.527204447     -2.371262554
H       -0.696035606      0.475933258     -4.897471213
N       -1.288993698      1.271869334      0.929139978
N        1.623261359      1.812415802      0.296812273
H        4.111456291     -2.476162787     -2.310932055
H       -2.865365700     -3.955591000     -0.257254098
N        1.355510495     -0.338588668      1.698967427
N        1.417199280     -0.637139001     -1.488133217
H        2.624775362      4.782472094     -0.925018018
H        1.592965980     -2.858060361      3.917175531
N       -0.755243030      0.756562224     -1.544350408
N       -0.557861551     -1.649273874      0.563749470
Os       0.299200147      0.202336723      0.075601257
C        3.569800890     -1.467390843      5.147957877
C        2.959595491     -2.188110280      6.184734367
C        4.924357332     -1.126632041      5.276539879
C        3.672160331     -2.554470931      7.315060639
C        5.650154226     -1.496336811      6.397525981
C        5.018087636     -2.208414307      7.414561104
H        1.901837611     -2.431017079      6.135273435
H        5.437013427     -0.603185774      4.474348616
H        3.187619934     -3.095352553      8.120482423
H        6.702019615     -1.245393590      6.480079228
C       -2.950325084      1.982468248     -4.971924048
C       -2.289640113      2.307310589     -6.165765647
C       -4.349166134      2.075151684     -4.933522946
C       -2.997627305      2.718250733     -7.283808551
C       -5.068883812      2.473571780     -6.048695421
C       -4.387127288      2.797173994     -7.219853741
H       -1.204481941      2.284538054     -6.215679143
H       -4.892820040      1.790895376     -4.036760927
H       -2.478078011      2.987048032     -8.196982261
H       -6.151704933      2.523909551     -6.016715522
Br       5.998573389     -2.711265436      8.952105459
Br      -5.360657793      3.352647521     -8.743952176
end